C3H7NO2
NCtclcactv09022605443D 0   0.00000     0.00000
 
 13 12  0  0  1  0  0  0  0  0999 V2000
   -1.5312    0.9685    0.3862 N   0  0  0  0  0  0  0  0  0  0  0  0
   -0.6990   -0.2417    0.4182 C   0  0  1  0  0  0  0  0  0  0  0  0
   -0.7087   -0.6627    1.4235 H   0  0  0  0  0  0  0  0  0  0  0  0
   -1.2545   -1.2689   -0.5703 C   0  0  0  0  0  0  0  0  0  0  0  0
    0.7151    0.1108    0.0348 C   0  0  0  0  0  0  0  0  0  0  0  0
    0.9398    1.1301   -0.5739 O   0  0  0  0  0  0  0  0  0  0  0  0
    1.7250   -0.7076    0.3694 O   0  0  0  0  0  0  0  0  0  0  0  0
   -1.5385    1.3780   -0.5360 H   0  0  0  0  0  0  0  0  0  0  0  0
   -2.4691    0.7709    0.7015 H   0  0  0  0  0  0  0  0  0  0  0  0
   -1.2449   -0.8478   -1.5756 H   0  0  0  0  0  0  0  0  0  0  0  0
   -0.6371   -2.1668   -0.5465 H   0  0  0  0  0  0  0  0  0  0  0  0
   -2.2774   -1.5238   -0.2930 H   0  0  0  0  0  0  0  0  0  0  0  0
    2.6146   -0.4392    0.1017 H   0  0  0  0  0  0  0  0  0  0  0  0
  1  2  1  0  0  0  0
  2  3  1  0  0  0  0
  2  4  1  0  0  0  0
  2  5  1  0  0  0  0
  5  6  2  0  0  0  0
  5  7  1  0  0  0  0
  1  8  1  0  0  0  0
  1  9  1  0  0  0  0
  4 10  1  0  0  0  0
  4 11  1  0  0  0  0
  4 12  1  0  0  0  0
  7 13  1  0  0  0  0
M  END
$$$$
